C41H42N4O8
APtclcactv09301816093D 0   0.00000     0.00000

 95100  0  0  1  0  0  0  0  0999 V2000
   -4.6505   -2.3424   -3.3581 C   0  0  0  0  0  0  0  0  0  0  0  0
   -5.0438   -2.2727   -1.9621 O   0  0  0  0  0  0  0  0  0  0  0  0
   -4.3457   -1.4409   -1.1731 C   0  0  0  0  0  0  0  0  0  0  0  0
   -3.4361   -0.7925   -1.6337 O   0  0  0  0  0  0  0  0  0  0  0  0
   -4.6964   -1.3158    0.2872 C   0  0  2  0  0  0  0  0  0  0  0  0
   -4.5933   -2.2848    0.7756 H   0  0  0  0  0  0  0  0  0  0  0  0
   -6.1208   -0.8174    0.4318 C   0  0  0  0  0  0  0  0  0  0  0  0
   -6.4173    0.5066    0.3615 C   0  0  0  0  0  0  0  0  0  0  0  0
   -5.3969    1.4668    0.1733 C   0  0  0  0  0  0  0  0  0  0  0  0
   -4.1267    1.0665    0.3722 C   0  0  0  0  0  0  0  0  0  0  0  0
   -2.8303    1.7071    0.1812 C   0  0  0  0  0  0  0  0  0  0  0  0
   -2.6835    3.0554   -0.1116 C   0  0  0  0  0  0  0  0  0  0  0  0
   -1.4686    3.7251   -0.2615 C   0  0  0  0  0  0  0  0  0  0  0  0
   -0.2437    3.2446   -0.0504 N   0  0  0  0  0  0  0  0  0  0  0  0
    0.6642    4.2175   -0.1628 C   0  0  0  0  0  0  0  0  0  0  0  0
    2.0354    4.1520    0.0858 C   0  0  0  0  0  0  0  0  0  0  0  0
    2.7016    2.9845    0.4129 C   0  0  0  0  0  0  0  0  0  0  0  0
    2.1771    1.7086    0.4893 N   0  0  0  0  0  0  0  0  0  0  0  0
    3.2155    0.8347    0.7179 C   0  0  0  0  0  0  0  0  0  0  0  0
    3.1457   -0.5567    0.7588 C   0  0  0  0  0  0  0  0  0  0  0  0
    1.9434   -1.2371    0.6197 C   0  0  0  0  0  0  0  0  0  0  0  0
    0.6855   -0.6888    0.4765 N   0  0  0  0  0  0  0  0  0  0  0  0
   -0.2351   -1.7149    0.5380 C   0  0  0  0  0  0  0  0  0  0  0  0
   -1.6137   -1.6185    0.6078 C   0  0  0  0  0  0  0  0  0  0  0  0
   -2.3220   -0.4331    0.5674 C   0  0  0  0  0  0  0  0  0  0  0  0
   -1.8727    0.7768    0.2874 N   0  0  0  0  0  0  0  0  0  0  0  0
   -3.7760   -0.3030    0.9529 C   0  0  2  0  0  0  0  0  0  0  0  0
   -3.9378   -0.3190    2.4751 C   0  0  0  0  0  0  0  0  0  0  0  0
    0.4825   -2.9309    0.5321 C   0  0  0  0  0  0  0  0  0  0  0  0
   -0.1174   -4.3123    0.4774 C   0  0  0  0  0  0  0  0  0  0  0  0
    1.8086   -2.6383    0.5842 C   0  0  0  0  0  0  0  0  0  0  0  0
    2.9364   -3.6376    0.6007 C   0  0  0  0  0  0  0  0  0  0  0  0
    3.4508   -3.8497   -0.8245 C   0  0  0  0  0  0  0  0  0  0  0  0
    4.5787   -4.8490   -0.8080 C   0  0  0  0  0  0  0  0  0  0  0  0
    4.9345   -5.3412    0.2365 O   0  0  0  0  0  0  0  0  0  0  0  0
    5.1879   -5.1924   -1.9537 O   0  0  0  0  0  0  0  0  0  0  0  0
    6.2661   -6.1606   -1.8625 C   0  0  0  0  0  0  0  0  0  0  0  0
    4.3835    1.5896    0.9093 C   0  0  0  0  0  0  0  0  0  0  0  0
    5.7476    1.0414    1.2407 C   0  0  0  0  0  0  0  0  0  0  0  0
    6.5082    0.7492   -0.0543 C   0  0  0  0  0  0  0  0  0  0  0  0
    7.8723    0.2010    0.2771 C   0  0  0  0  0  0  0  0  0  0  0  0
    8.7207   -0.1291   -0.7092 O   0  0  0  0  0  0  0  0  0  0  0  0
    8.2023    0.0587    1.4307 O   0  0  0  0  0  0  0  0  0  0  0  0
    4.0683    2.9035    0.7427 C   0  0  0  0  0  0  0  0  0  0  0  0
    5.0156    4.0669    0.8855 C   0  0  0  0  0  0  0  0  0  0  0  0
   -0.0478    5.4274   -0.6290 C   0  0  0  0  0  0  0  0  0  0  0  0
    0.5450    6.7340   -0.9657 C   0  0  0  0  0  0  0  0  0  0  0  0
    0.3254    7.2755   -2.1593 C   0  0  0  0  0  0  0  0  0  0  0  0
   -1.3790    5.0799   -0.6837 C   0  0  0  0  0  0  0  0  0  0  0  0
   -2.5217    5.9652   -1.1098 C   0  0  0  0  0  0  0  0  0  0  0  0
   -7.1623   -1.7498    0.6438 C   0  0  0  0  0  0  0  0  0  0  0  0
   -8.3103   -1.3634    0.7616 O   0  0  0  0  0  0  0  0  0  0  0  0
   -6.8834   -3.0686    0.7155 O   0  0  0  0  0  0  0  0  0  0  0  0
   -7.9842   -3.9538    0.9314 C   0  0  0  0  0  0  0  0  0  0  0  0
   -3.6143   -2.6735   -3.4275 H   0  0  0  0  0  0  0  0  0  0  0  0
   -5.2938   -3.0495   -3.8819 H   0  0  0  0  0  0  0  0  0  0  0  0
   -4.7481   -1.3566   -3.8127 H   0  0  0  0  0  0  0  0  0  0  0  0
   -7.4441    0.8292    0.4507 H   0  0  0  0  0  0  0  0  0  0  0  0
   -5.6268    2.4808   -0.1188 H   0  0  0  0  0  0  0  0  0  0  0  0
   -3.5861    3.6356   -0.2344 H   0  0  0  0  0  0  0  0  0  0  0  0
    2.6093    5.0645    0.0194 H   0  0  0  0  0  0  0  0  0  0  0  0
    4.0542   -1.1227    0.9025 H   0  0  0  0  0  0  0  0  0  0  0  0
   -2.1763   -2.5357    0.7001 H   0  0  0  0  0  0  0  0  0  0  0  0
   -3.3733    0.5062    2.9091 H   0  0  0  0  0  0  0  0  0  0  0  0
   -4.9922   -0.2116    2.7296 H   0  0  0  0  0  0  0  0  0  0  0  0
   -3.5630   -1.2632    2.8704 H   0  0  0  0  0  0  0  0  0  0  0  0
   -1.2041   -4.2353    0.4430 H   0  0  0  0  0  0  0  0  0  0  0  0
    0.2388   -4.8281   -0.4143 H   0  0  0  0  0  0  0  0  0  0  0  0
    0.1793   -4.8725    1.3641 H   0  0  0  0  0  0  0  0  0  0  0  0
    3.7456   -3.2619    1.2269 H   0  0  0  0  0  0  0  0  0  0  0  0
    2.5765   -4.5851    1.0019 H   0  0  0  0  0  0  0  0  0  0  0  0
    2.6416   -4.2254   -1.4507 H   0  0  0  0  0  0  0  0  0  0  0  0
    3.8107   -2.9022   -1.2256 H   0  0  0  0  0  0  0  0  0  0  0  0
    7.0531   -5.7684   -1.2184 H   0  0  0  0  0  0  0  0  0  0  0  0
    5.8840   -7.0915   -1.4435 H   0  0  0  0  0  0  0  0  0  0  0  0
    6.6706   -6.3488   -2.8570 H   0  0  0  0  0  0  0  0  0  0  0  0
    6.3003    1.7737    1.8293 H   0  0  0  0  0  0  0  0  0  0  0  0
    5.6397    0.1209    1.8144 H   0  0  0  0  0  0  0  0  0  0  0  0
    5.9556    0.0169   -0.6429 H   0  0  0  0  0  0  0  0  0  0  0  0
    6.6161    1.6697   -0.6279 H   0  0  0  0  0  0  0  0  0  0  0  0
    9.5844   -0.4766   -0.4475 H   0  0  0  0  0  0  0  0  0  0  0  0
    5.4802    4.2775   -0.0777 H   0  0  0  0  0  0  0  0  0  0  0  0
    4.4646    4.9448    1.2229 H   0  0  0  0  0  0  0  0  0  0  0  0
    5.7871    3.8197    1.6148 H   0  0  0  0  0  0  0  0  0  0  0  0
    1.1578    7.2514   -0.2425 H   0  0  0  0  0  0  0  0  0  0  0  0
   -0.3505    6.7977   -2.8530 H   0  0  0  0  0  0  0  0  0  0  0  0
    0.8229    8.1934   -2.4356 H   0  0  0  0  0  0  0  0  0  0  0  0
   -2.6759    5.8674   -2.1844 H   0  0  0  0  0  0  0  0  0  0  0  0
   -3.4284    5.6665   -0.5839 H   0  0  0  0  0  0  0  0  0  0  0  0
   -2.2870    7.0022   -0.8694 H   0  0  0  0  0  0  0  0  0  0  0  0
   -7.6224   -4.9814    0.9684 H   0  0  0  0  0  0  0  0  0  0  0  0
   -8.4705   -3.7056    1.8748 H   0  0  0  0  0  0  0  0  0  0  0  0
   -8.6995   -3.8497    0.1155 H   0  0  0  0  0  0  0  0  0  0  0  0
    1.2413    1.4706    0.3978 H   0  0  0  0  0  0  0  0  0  0  0  0
    0.4838    0.2522    0.3548 H   0  0  0  0  0  0  0  0  0  0  0  0
  1  2  1  0  0  0  0
  2  3  1  0  0  0  0
  3  4  2  0  0  0  0
  3  5  1  0  0  0  0
  5  6  1  0  0  0  0
  5  7  1  0  0  0  0
  7  8  2  0  0  0  0
  8  9  1  0  0  0  0
  9 10  2  0  0  0  0
 10 11  1  0  0  0  0
 11 12  2  0  0  0  0
 12 13  1  0  0  0  0
 13 14  2  0  0  0  0
 14 15  1  0  0  0  0
 15 16  2  0  0  0  0
 16 17  1  0  0  0  0
 17 18  1  0  0  0  0
 18 19  1  0  0  0  0
 19 20  1  0  0  0  0
 20 21  2  0  0  0  0
 21 22  1  0  0  0  0
 22 23  1  0  0  0  0
 23 24  2  0  0  0  0
 24 25  1  0  0  0  0
 25 26  2  0  0  0  0
 11 26  1  0  0  0  0
 25 27  1  0  0  0  0
  5 27  1  0  0  0  0
 10 27  1  0  0  0  0
 27 28  1  0  0  0  0
 23 29  1  0  0  0  0
 29 30  1  0  0  0  0
 29 31  2  0  0  0  0
 21 31  1  0  0  0  0
 31 32  1  0  0  0  0
 32 33  1  0  0  0  0
 33 34  1  0  0  0  0
 34 35  2  0  0  0  0
 34 36  1  0  0  0  0
 36 37  1  0  0  0  0
 19 38  2  0  0  0  0
 38 39  1  0  0  0  0
 39 40  1  0  0  0  0
 40 41  1  0  0  0  0
 41 42  1  0  0  0  0
 41 43  2  0  0  0  0
 38 44  1  0  0  0  0
 17 44  2  0  0  0  0
 44 45  1  0  0  0  0
 15 46  1  0  0  0  0
 46 47  1  0  0  0  0
 47 48  2  0  0  0  0
 46 49  2  0  0  0  0
 13 49  1  0  0  0  0
 49 50  1  0  0  0  0
  7 51  1  0  0  0  0
 51 52  2  0  0  0  0
 51 53  1  0  0  0  0
 53 54  1  0  0  0  0
  1 55  1  0  0  0  0
  1 56  1  0  0  0  0
  1 57  1  0  0  0  0
  8 58  1  0  0  0  0
  9 59  1  0  0  0  0
 12 60  1  0  0  0  0
 16 61  1  0  0  0  0
 20 62  1  0  0  0  0
 24 63  1  0  0  0  0
 28 64  1  0  0  0  0
 28 65  1  0  0  0  0
 28 66  1  0  0  0  0
 30 67  1  0  0  0  0
 30 68  1  0  0  0  0
 30 69  1  0  0  0  0
 32 70  1  0  0  0  0
 32 71  1  0  0  0  0
 33 72  1  0  0  0  0
 33 73  1  0  0  0  0
 37 74  1  0  0  0  0
 37 75  1  0  0  0  0
 37 76  1  0  0  0  0
 39 77  1  0  0  0  0
 39 78  1  0  0  0  0
 40 79  1  0  0  0  0
 40 80  1  0  0  0  0
 42 81  1  0  0  0  0
 45 82  1  0  0  0  0
 45 83  1  0  0  0  0
 45 84  1  0  0  0  0
 47 85  1  0  0  0  0
 48 86  1  0  0  0  0
 48 87  1  0  0  0  0
 50 88  1  0  0  0  0
 50 89  1  0  0  0  0
 50 90  1  0  0  0  0
 54 91  1  0  0  0  0
 54 92  1  0  0  0  0
 54 93  1  0  0  0  0
 18 94  1  0  0  0  0
 22 95  1  0  0  0  0
M  END
