
 OpenBabel09301816173D

 95100  0  0  1  0  0  0  0  0999 V2000
   -4.4182   -3.1638   -2.8252 C   0  0  0  0  0  0  0  0  0  0  0  0
   -4.4819   -2.6737   -1.4651 O   0  0  0  0  0  0  0  0  0  0  0  0
   -4.6814   -1.3493   -1.2541 C   0  0  0  0  0  0  0  0  0  0  0  0
   -4.7959   -0.5448   -2.1603 O   0  0  0  0  0  0  0  0  0  0  0  0
   -4.8276   -1.0037    0.1785 C   0  0  2  0  0  0  0  0  0  0  0  0
   -4.7509   -1.9810    0.6805 H   0  0  0  0  0  0  0  0  0  0  0  0
   -6.0963   -0.5263    0.4729 C   0  0  0  0  0  0  0  0  0  0  0  0
   -6.2358    0.7957    0.6885 C   0  0  0  0  0  0  0  0  0  0  0  0
   -5.2037    1.6427    0.7398 C   0  0  0  0  0  0  0  0  0  0  0  0
   -3.9649    1.0890    0.6106 C   0  0  0  0  0  0  0  0  0  0  0  0
   -2.8063    1.6353   -0.0215 C   0  0  0  0  0  0  0  0  0  0  0  0
   -2.7016    3.0493   -0.2897 C   0  0  0  0  0  0  0  0  0  0  0  0
   -1.5215    3.8815   -0.2824 C   0  0  0  0  0  0  0  0  0  0  0  0
   -0.3175    3.3655    0.1640 N   0  0  0  0  0  0  0  0  0  0  0  0
    0.5925    4.3469   -0.0939 C   0  0  0  0  0  0  0  0  0  0  0  0
    2.0320    4.3162    0.0360 C   0  0  0  0  0  0  0  0  0  0  0  0
    2.6532    3.0285    0.2369 C   0  0  0  0  0  0  0  0  0  0  0  0
    2.2135    1.7263    0.1294 N   0  0  0  0  0  0  0  0  0  0  0  0
    3.1696    0.8369    0.5748 C   0  0  0  0  0  0  0  0  0  0  0  0
    3.2064   -0.5883    0.8031 C   0  0  0  0  0  0  0  0  0  0  0  0
    1.9309   -1.2654    0.7968 C   0  0  0  0  0  0  0  0  0  0  0  0
    0.6491   -0.7555    0.7711 N   0  0  0  0  0  0  0  0  0  0  0  0
   -0.2613   -1.7784    0.6278 C   0  0  0  0  0  0  0  0  0  0  0  0
   -1.6913   -1.7299    0.4555 C   0  0  0  0  0  0  0  0  0  0  0  0
   -2.4315   -0.5181    0.1838 C   0  0  0  0  0  0  0  0  0  0  0  0
   -1.8590    0.6652   -0.2472 N   0  0  0  0  0  0  0  0  0  0  0  0
   -3.7115   -0.3053    0.8232 C   0  0  2  0  0  0  0  0  0  0  0  0
   -3.6967   -0.6413    2.3115 C   0  0  0  0  0  0  0  0  0  0  0  0
    0.4579   -3.0135    0.5943 C   0  0  0  0  0  0  0  0  0  0  0  0
   -0.1434   -4.3838    0.4262 C   0  0  0  0  0  0  0  0  0  0  0  0
    1.8412   -2.6913    0.7107 C   0  0  0  0  0  0  0  0  0  0  0  0
    2.9942   -3.6625    0.7501 C   0  0  0  0  0  0  0  0  0  0  0  0
    3.5071   -3.9213   -0.6838 C   0  0  0  0  0  0  0  0  0  0  0  0
    4.6955   -4.8650   -0.7069 C   0  0  0  0  0  0  0  0  0  0  0  0
    5.2018   -5.3481    0.2890 O   0  0  0  0  0  0  0  0  0  0  0  0
    5.1348   -5.0858   -1.9652 O   0  0  0  0  0  0  0  0  0  0  0  0
    6.2759   -5.9572   -2.1542 C   0  0  0  0  0  0  0  0  0  0  0  0
    4.2790    1.5880    0.8798 C   0  0  0  0  0  0  0  0  0  0  0  0
    5.6204    1.0891    1.3676 C   0  0  0  0  0  0  0  0  0  0  0  0
    6.5145    0.8016    0.1400 C   0  0  0  0  0  0  0  0  0  0  0  0
    7.8633    0.2219    0.5236 C   0  0  0  0  0  0  0  0  0  0  0  0
    8.5447   -0.2065   -0.5027 O   0  0  0  0  0  0  0  0  0  0  0  0
    8.2994    0.1645    1.6551 O   0  0  0  0  0  0  0  0  0  0  0  0
    3.9547    2.9609    0.6730 C   0  0  0  0  0  0  0  0  0  0  0  0
    4.9106    4.1011    0.9262 C   0  0  0  0  0  0  0  0  0  0  0  0
   -0.0933    5.4349   -0.6878 C   0  0  0  0  0  0  0  0  0  0  0  0
    0.5215    6.6749   -1.1391 C   0  0  0  0  0  0  0  0  0  0  0  0
    0.4862    7.1221   -2.4022 C   0  0  0  0  0  0  0  0  0  0  0  0
   -1.4305    5.1597   -0.7918 C   0  0  0  0  0  0  0  0  0  0  0  0
   -2.5620    6.1644   -0.8515 C   0  0  0  0  0  0  0  0  0  0  0  0
   -7.2294   -1.3969    0.4867 C   0  0  0  0  0  0  0  0  0  0  0  0
   -8.3396   -0.9274    0.6594 O   0  0  0  0  0  0  0  0  0  0  0  0
   -7.0302   -2.7324    0.3854 O   0  0  0  0  0  0  0  0  0  0  0  0
   -8.1613   -3.6336    0.4557 C   0  0  0  0  0  0  0  0  0  0  0  0
   -3.5285   -2.7583   -3.3143 H   0  0  0  0  0  0  0  0  0  0  0  0
   -4.3656   -4.2552   -2.8070 H   0  0  0  0  0  0  0  0  0  0  0  0
   -5.3154   -2.8522   -3.3684 H   0  0  0  0  0  0  0  0  0  0  0  0
   -7.2254    1.2147    0.8538 H   0  0  0  0  0  0  0  0  0  0  0  0
   -5.3446    2.7041    0.9262 H   0  0  0  0  0  0  0  0  0  0  0  0
   -2.9729    3.5488    0.6383 H   0  0  0  0  0  0  0  0  0  0  0  0
    2.5309    4.6586   -0.8679 H   0  0  0  0  0  0  0  0  0  0  0  0
    3.9816   -1.0042    0.1657 H   0  0  0  0  0  0  0  0  0  0  0  0
   -2.2868   -2.5500    0.0637 H   0  0  0  0  0  0  0  0  0  0  0  0
   -2.9185   -0.0705    2.8247 H   0  0  0  0  0  0  0  0  0  0  0  0
   -4.6438   -0.3984    2.7995 H   0  0  0  0  0  0  0  0  0  0  0  0
   -3.4942   -1.6990    2.4982 H   0  0  0  0  0  0  0  0  0  0  0  0
   -0.7972   -4.4144   -0.4481 H   0  0  0  0  0  0  0  0  0  0  0  0
    0.6201   -5.1510    0.2895 H   0  0  0  0  0  0  0  0  0  0  0  0
   -0.7379   -4.6522    1.3021 H   0  0  0  0  0  0  0  0  0  0  0  0
    3.8038   -3.2626    1.3650 H   0  0  0  0  0  0  0  0  0  0  0  0
    2.6873   -4.6049    1.2086 H   0  0  0  0  0  0  0  0  0  0  0  0
    2.7061   -4.3454   -1.2938 H   0  0  0  0  0  0  0  0  0  0  0  0
    3.8009   -2.9792   -1.1520 H   0  0  0  0  0  0  0  0  0  0  0  0
    7.1402   -5.5447   -1.6258 H   0  0  0  0  0  0  0  0  0  0  0  0
    6.0429   -6.9512   -1.7617 H   0  0  0  0  0  0  0  0  0  0  0  0
    6.4981   -6.0272   -3.2219 H   0  0  0  0  0  0  0  0  0  0  0  0
    6.1054    1.8219    2.0148 H   0  0  0  0  0  0  0  0  0  0  0  0
    5.5039    0.1783    1.9595 H   0  0  0  0  0  0  0  0  0  0  0  0
    6.0083    0.1007   -0.5286 H   0  0  0  0  0  0  0  0  0  0  0  0
    6.6743    1.7223   -0.4261 H   0  0  0  0  0  0  0  0  0  0  0  0
    9.3842   -0.5516   -0.1484 H   0  0  0  0  0  0  0  0  0  0  0  0
    5.7038    4.1100    0.1756 H   0  0  0  0  0  0  0  0  0  0  0  0
    4.4116    5.0712    0.8923 H   0  0  0  0  0  0  0  0  0  0  0  0
    5.3756    4.0137    1.9099 H   0  0  0  0  0  0  0  0  0  0  0  0
    1.0325    7.2420   -0.3618 H   0  0  0  0  0  0  0  0  0  0  0  0
   -0.0240    6.5671   -3.1858 H   0  0  0  0  0  0  0  0  0  0  0  0
    0.9623    8.0591   -2.6801 H   0  0  0  0  0  0  0  0  0  0  0  0
   -3.3111    5.8483   -1.5805 H   0  0  0  0  0  0  0  0  0  0  0  0
   -3.0488    6.2539    0.1220 H   0  0  0  0  0  0  0  0  0  0  0  0
   -2.2051    7.1539   -1.1438 H   0  0  0  0  0  0  0  0  0  0  0  0
   -7.7977   -4.6627    0.3951 H   0  0  0  0  0  0  0  0  0  0  0  0
   -8.6862   -3.4873    1.4041 H   0  0  0  0  0  0  0  0  0  0  0  0
   -8.8385   -3.4335   -0.3791 H   0  0  0  0  0  0  0  0  0  0  0  0
    1.2770    1.4664   -0.1552 H   0  0  0  0  0  0  0  0  0  0  0  0
    0.4132    0.2291    0.7877 H   0  0  0  0  0  0  0  0  0  0  0  0
  1  2  1  0  0  0  0
  1 55  1  0  0  0  0
  1 56  1  0  0  0  0
  1 57  1  0  0  0  0
  2  3  1  0  0  0  0
  3  4  2  0  0  0  0
  3  5  1  0  0  0  0
  5  6  1  0  0  0  0
  5  7  1  0  0  0  0
  5 27  1  1  0  0  0
  7  8  2  0  0  0  0
  7 51  1  0  0  0  0
  8  9  1  0  0  0  0
  8 58  1  0  0  0  0
  9 10  2  0  0  0  0
  9 59  1  0  0  0  0
 10 11  1  0  0  0  0
 10 27  1  0  0  0  0
 11 12  2  0  0  0  0
 11 26  1  0  0  0  0
 12 13  1  0  0  0  0
 12 60  1  0  0  0  0
 13 14  2  0  0  0  0
 13 49  1  0  0  0  0
 14 15  1  0  0  0  0
 15 16  2  0  0  0  0
 15 46  1  0  0  0  0
 16 17  1  0  0  0  0
 16 61  1  0  0  0  0
 17 18  1  0  0  0  0
 17 44  2  0  0  0  0
 18 19  1  0  0  0  0
 18 94  1  0  0  0  0
 19 20  1  0  0  0  0
 19 38  2  0  0  0  0
 20 21  2  0  0  0  0
 20 62  1  0  0  0  0
 21 22  1  0  0  0  0
 21 31  1  0  0  0  0
 22 23  1  0  0  0  0
 22 95  1  0  0  0  0
 23 24  2  0  0  0  0
 23 29  1  0  0  0  0
 24 25  1  0  0  0  0
 24 63  1  0  0  0  0
 25 26  2  0  0  0  0
 25 27  1  0  0  0  0
 27 28  1  1  0  0  0
 28 64  1  0  0  0  0
 28 65  1  0  0  0  0
 28 66  1  0  0  0  0
 29 30  1  0  0  0  0
 29 31  2  0  0  0  0
 30 67  1  0  0  0  0
 30 68  1  0  0  0  0
 30 69  1  0  0  0  0
 31 32  1  0  0  0  0
 32 33  1  0  0  0  0
 32 70  1  0  0  0  0
 32 71  1  0  0  0  0
 33 34  1  0  0  0  0
 33 72  1  0  0  0  0
 33 73  1  0  0  0  0
 34 35  2  0  0  0  0
 34 36  1  0  0  0  0
 36 37  1  0  0  0  0
 37 74  1  0  0  0  0
 37 75  1  0  0  0  0
 37 76  1  0  0  0  0
 38 39  1  0  0  0  0
 38 44  1  0  0  0  0
 39 40  1  0  0  0  0
 39 77  1  0  0  0  0
 39 78  1  0  0  0  0
 40 41  1  0  0  0  0
 40 79  1  0  0  0  0
 40 80  1  0  0  0  0
 41 42  1  0  0  0  0
 41 43  2  0  0  0  0
 42 81  1  0  0  0  0
 44 45  1  0  0  0  0
 45 82  1  0  0  0  0
 45 83  1  0  0  0  0
 45 84  1  0  0  0  0
 46 47  1  0  0  0  0
 46 49  2  0  0  0  0
 47 48  2  0  0  0  0
 47 85  1  0  0  0  0
 48 86  1  0  0  0  0
 48 87  1  0  0  0  0
 49 50  1  0  0  0  0
 50 88  1  0  0  0  0
 50 89  1  0  0  0  0
 50 90  1  0  0  0  0
 51 52  2  0  0  0  0
 51 53  1  0  0  0  0
 53 54  1  0  0  0  0
 54 91  1  0  0  0  0
 54 92  1  0  0  0  0
 54 93  1  0  0  0  0
M  END
