424
IRMOF-1
O       3.461488    7.282041    5.633959
C       2.875102    6.458000    6.458000
C       1.389762    6.458000    6.458000
C       0.694881    7.307873    5.608127
H       1.157274    7.876177    5.039823
O       3.461488   18.549959   20.198041
C       2.875102   19.374000   19.374000
C       1.389762   19.374000   19.374000
C       0.694881   18.524127   20.223873
H       1.157274   17.955823   20.792177
O       3.461488   20.198041   18.549959
C       0.694881   20.223873   18.524127
H       1.157274   20.792177   17.955823
O       3.461488    5.633959    7.282041
C       0.694881    5.608127    7.307873
H       1.157274    5.039823    7.876177
O       3.461488    5.633959   18.549959
C       2.875102    6.458000   19.374000
C       1.389762    6.458000   19.374000
C       0.694881    5.608127   18.524127
H       1.157274    5.039823   17.955823
O       3.461488   20.198041    7.282041
C       2.875102   19.374000    6.458000
C       1.389762   19.374000    6.458000
C       0.694881   20.223873    7.307873
H       1.157274   20.792177    7.876177
O       3.461488    7.282041   20.198041
C       0.694881    7.307873   20.223873
H       1.157274    7.876177   20.792177
O       3.461488   18.549959    5.633959
C       0.694881   18.524127    5.608127
H       1.157274   17.955823    5.039823
Zn      5.336891    7.579109    5.336891
Zn      5.336891   18.252891   20.495109
Zn      5.336891    5.336891    7.579109
Zn      5.336891   20.495109   18.252891
Zn      5.336891    7.579109   20.495109
Zn      5.336891   18.252891    5.336891
Zn      5.336891    5.336891   18.252891
Zn      5.336891   20.495109    7.579109
O       7.282041    3.461488   20.198041
C       6.458000    2.875102   19.374000
C       6.458000    1.389762   19.374000
C       7.307873    0.694881   20.223873
H       7.876177    1.157274   20.792177
O      18.549959    3.461488    5.633959
C      19.374000    2.875102    6.458000
C      19.374000    1.389762    6.458000
C      18.524127    0.694881    5.608127
H      17.955823    1.157274    5.039823
O      20.198041    3.461488    7.282041
C      20.223873    0.694881    7.307873
H      20.792177    1.157274    7.876177
O       5.633959    3.461488   18.549959
C       5.608127    0.694881   18.524127
H       5.039823    1.157274   17.955823
Zn      7.579109    5.336891   20.495109
Zn     18.252891    5.336891    5.336891
Zn     20.495109    5.336891    7.579109
O       7.282041    5.633959    3.461488
C       6.458000    6.458000    2.875102
C       6.458000    6.458000    1.389762
C       7.307873    5.608127    0.694881
H       7.876177    5.039823    1.157274
O      18.549959   20.198041    3.461488
C      19.374000   19.374000    2.875102
C      19.374000   19.374000    1.389762
C      18.524127   20.223873    0.694881
H      17.955823   20.792177    1.157274
O       5.633959   18.549959    3.461488
C       6.458000   19.374000    2.875102
C       6.458000   19.374000    1.389762
C       5.608127   18.524127    0.694881
H       5.039823   17.955823    1.157274
O      20.198041    7.282041    3.461488
C      19.374000    6.458000    2.875102
C      19.374000    6.458000    1.389762
C      20.223873    7.307873    0.694881
H      20.792177    7.876177    1.157274
O       7.282041   20.198041    3.461488
C       7.307873   20.223873    0.694881
H       7.876177   20.792177    1.157274
O      18.549959    5.633959    3.461488
C      18.524127    5.608127    0.694881
H      17.955823    5.039823    1.157274
O      20.198041   18.549959    3.461488
C      20.223873   18.524127    0.694881
H      20.792177   17.955823    1.157274
O       5.633959    7.282041    3.461488
C       5.608127    7.307873    0.694881
H       5.039823    7.876177    1.157274
Zn      7.579109    5.336891    5.336891
Zn     18.252891   20.495109    5.336891
Zn     20.495109   18.252891    5.336891
Zn     20.495109    7.579109    5.336891
Zn      7.579109   20.495109    5.336891
O       5.633959    3.461488    7.282041
C       6.458000    2.875102    6.458000
C       6.458000    1.389762    6.458000
C       5.608127    0.694881    7.307873
H       5.039823    1.157274    7.876177
O      20.198041    3.461488   18.549959
C      19.374000    2.875102   19.374000
C      19.374000    1.389762   19.374000
C      20.223873    0.694881   18.524127
H      20.792177    1.157274   17.955823
O       7.282041    3.461488    5.633959
C       7.307873    0.694881    5.608127
H       7.876177    1.157274    5.039823
O      18.549959    3.461488   20.198041
C      18.524127    0.694881   20.223873
H      17.955823    1.157274   20.792177
Zn     18.252891    5.336891   20.495109
Zn     20.495109    5.336891   18.252891
O       6.458000    6.458000    6.458000
O      19.374000   19.374000    6.458000
O      19.374000    6.458000   19.374000
Zn      7.579109   20.495109   20.495109
O       6.458000   19.374000   19.374000
Zn     20.495109    7.579109   20.495109
Zn     20.495109   20.495109    7.579109
O       6.458000    6.458000   19.374000
Zn     20.495109   18.252891   20.495109
O      19.374000   19.374000   19.374000
O       6.458000   19.374000    6.458000
O      19.374000    6.458000    6.458000
Zn     18.252891   20.495109   20.495109
O      22.370512    5.633959    7.282041
C      22.956898    6.458000    6.458000
C      24.442238    6.458000    6.458000
C      25.137119    5.608127    7.307873
H      24.674726    5.039823    7.876177
Zn     20.495109   20.495109   18.252891
O      22.370512   20.198041   18.549959
C      22.956898   19.374000   19.374000
C      24.442238   19.374000   19.374000
C      25.137119   20.223873   18.524127
H      24.674726   20.792177   17.955823
O      22.370512   18.549959   20.198041
C      25.137119   18.524127   20.223873
H      24.674726   17.955823   20.792177
O      22.370512    7.282041    5.633959
C      25.137119    7.307873    5.608127
H      24.674726    7.876177    5.039823
Zn      7.579109   18.252891   18.252891
O       7.282041   18.549959   16.377488
C       6.458000   19.374000   15.791102
C       6.458000   19.374000   14.305762
C       7.307873   18.524127   13.610881
H       7.876177   17.955823   14.073274
Zn     18.252891    7.579109   18.252891
O      18.549959    7.282041   16.377488
C      19.374000    6.458000   15.791102
C      19.374000    6.458000   14.305762
C      18.524127    7.307873   13.610881
H      17.955823    7.876177   14.073274
Zn     18.252891   18.252891    7.579109
O      18.549959   18.549959    9.454512
C      19.374000   19.374000   10.040898
C      19.374000   19.374000   11.526238
C      18.524127   18.524127   12.221119
H      17.955823   17.955823   11.758726
Zn      7.579109    7.579109    7.579109
O       7.282041    7.282041    9.454512
C       6.458000    6.458000   10.040898
C       6.458000    6.458000   11.526238
C       7.307873    7.307873   12.221119
H       7.876177    7.876177   11.758726
O       5.633959   16.377488   20.198041
C       6.458000   15.791102   19.374000
C       6.458000   14.305762   19.374000
C       5.608127   13.610881   20.223873
H       5.039823   14.073274   20.792177
O      20.198041   16.377488    5.633959
C      19.374000   15.791102    6.458000
C      19.374000   14.305762    6.458000
C      20.223873   13.610881    5.608127
H      20.792177   14.073274    5.039823
O       5.633959    9.454512    5.633959
C       6.458000   10.040898    6.458000
C       6.458000   11.526238    6.458000
C       5.608127   12.221119    5.608127
H       5.039823   11.758726    5.039823
O      20.198041    9.454512   20.198041
C      19.374000   10.040898   19.374000
C      19.374000   11.526238   19.374000
C      20.223873   12.221119   20.223873
H      20.792177   11.758726   20.792177
O       5.633959   20.198041    9.454512
C       6.458000   19.374000   10.040898
C       6.458000   19.374000   11.526238
C       5.608127   20.223873   12.221119
H       5.039823   20.792177   11.758726
O      20.198041    5.633959    9.454512
C      19.374000    6.458000   10.040898
C      19.374000    6.458000   11.526238
C      20.223873    5.608127   12.221119
H      20.792177    5.039823   11.758726
O       5.633959    5.633959   16.377488
C       6.458000    6.458000   15.791102
C       6.458000    6.458000   14.305762
C       5.608127    5.608127   13.610881
H       5.039823    5.039823   14.073274
O      20.198041   20.198041   16.377488
C      19.374000   19.374000   15.791102
C      19.374000   19.374000   14.305762
C      20.223873   20.223873   13.610881
H      20.792177   20.792177   14.073274
Zn      7.579109   18.252891    7.579109
O       7.282041   16.377488    7.282041
C       6.458000   15.791102    6.458000
C       6.458000   14.305762    6.458000
C       7.307873   13.610881    7.307873
H       7.876177   14.073274    7.876177
Zn     18.252891   18.252891   18.252891
O      18.549959   16.377488   18.549959
C      19.374000   15.791102   19.374000
C      19.374000   14.305762   19.374000
C      18.524127   13.610881   18.524127
H      17.955823   14.073274   17.955823
Zn     18.252891    7.579109    7.579109
O      18.549959    9.454512    7.282041
C      19.374000   10.040898    6.458000
C      19.374000   11.526238    6.458000
C      18.524127   12.221119    7.307873
H      17.955823   11.758726    7.876177
Zn      7.579109    7.579109   18.252891
O       7.282041    9.454512   18.549959
C       6.458000   10.040898   19.374000
C       6.458000   11.526238   19.374000
C       7.307873   12.221119   18.524127
H       7.876177   11.758726   17.955823
O      18.549959    7.282041    9.454512
C      18.524127    7.307873   12.221119
H      17.955823    7.876177   11.758726
O       7.282041   18.549959    9.454512
C       7.307873   18.524127   12.221119
H       7.876177   17.955823   11.758726
O       7.282041    7.282041   16.377488
C       7.307873    7.307873   13.610881
H       7.876177    7.876177   14.073274
O      18.549959   18.549959   16.377488
C      18.524127   18.524127   13.610881
H      17.955823   17.955823   14.073274
O      20.198041    9.454512    5.633959
C      20.223873   12.221119    5.608127
H      20.792177   11.758726    5.039823
O       5.633959    9.454512   20.198041
C       5.608127   12.221119   20.223873
H       5.039823   11.758726   20.792177
O      20.198041   16.377488   20.198041
C      20.223873   13.610881   20.223873
H      20.792177   14.073274   20.792177
O       5.633959   16.377488    5.633959
C       5.608127   13.610881    5.608127
H       5.039823   14.073274    5.039823
O      20.198041    5.633959   16.377488
C      20.223873    5.608127   13.610881
H      20.792177    5.039823   14.073274
O       5.633959   20.198041   16.377488
C       5.608127   20.223873   13.610881
H       5.039823   20.792177   14.073274
O      20.198041   20.198041    9.454512
C      20.223873   20.223873   12.221119
H      20.792177   20.792177   11.758726
O       5.633959    5.633959    9.454512
C       5.608127    5.608127   12.221119
H       5.039823    5.039823   11.758726
O      18.549959    9.454512   18.549959
C      18.524127   12.221119   18.524127
H      17.955823   11.758726   17.955823
O       7.282041    9.454512    7.282041
C       7.307873   12.221119    7.307873
H       7.876177   11.758726    7.876177
O       7.282041   16.377488   18.549959
C       7.307873   13.610881   18.524127
H       7.876177   14.073274   17.955823
O      18.549959   16.377488    7.282041
C      18.524127   13.610881    7.307873
H      17.955823   14.073274    7.876177
O      16.377488    7.282041   18.549959
C      15.791102    6.458000   19.374000
C      14.305762    6.458000   19.374000
C      13.610881    7.307873   18.524127
H      14.073274    7.876177   17.955823
O      16.377488   18.549959    7.282041
C      15.791102   19.374000    6.458000
C      14.305762   19.374000    6.458000
C      13.610881   18.524127    7.307873
H      14.073274   17.955823    7.876177
O       9.454512   18.549959   18.549959
C      10.040898   19.374000   19.374000
C      11.526238   19.374000   19.374000
C      12.221119   18.524127   18.524127
H      11.758726   17.955823   17.955823
O       9.454512    7.282041    7.282041
C      10.040898    6.458000    6.458000
C      11.526238    6.458000    6.458000
C      12.221119    7.307873    7.307873
H      11.758726    7.876177    7.876177
O      16.377488    5.633959    5.633959
C      15.791102    6.458000    6.458000
C      14.305762    6.458000    6.458000
C      13.610881    5.608127    5.608127
H      14.073274    5.039823    5.039823
O      16.377488   20.198041   20.198041
C      15.791102   19.374000   19.374000
C      14.305762   19.374000   19.374000
C      13.610881   20.223873   20.223873
H      14.073274   20.792177   20.792177
O       9.454512    5.633959   20.198041
C      10.040898    6.458000   19.374000
C      11.526238    6.458000   19.374000
C      12.221119    5.608127   20.223873
H      11.758726    5.039823   20.792177
O       9.454512   20.198041    5.633959
C      10.040898   19.374000    6.458000
C      11.526238   19.374000    6.458000
C      12.221119   20.223873    5.608127
H      11.758726   20.792177    5.039823
O       9.454512   18.549959    7.282041
C      12.221119   18.524127    7.307873
H      11.758726   17.955823    7.876177
O       9.454512    7.282041   18.549959
C      12.221119    7.307873   18.524127
H      11.758726    7.876177   17.955823
O      16.377488    7.282041    7.282041
C      13.610881    7.307873    7.307873
H      14.073274    7.876177    7.876177
O      16.377488   18.549959   18.549959
C      13.610881   18.524127   18.524127
H      14.073274   17.955823   17.955823
O       9.454512   20.198041   20.198041
C      12.221119   20.223873   20.223873
H      11.758726   20.792177   20.792177
O       9.454512    5.633959    5.633959
C      12.221119    5.608127    5.608127
H      11.758726    5.039823    5.039823
O      16.377488   20.198041    5.633959
C      13.610881   20.223873    5.608127
H      14.073274   20.792177    5.039823
O      16.377488    5.633959   20.198041
C      13.610881    5.608127   20.223873
H      14.073274    5.039823   20.792177
O      18.549959    5.633959   22.370512
O       7.282041   20.198041   22.370512
O      22.370512   18.549959    5.633959
O      22.370512    7.282041   20.198041
O       5.633959   22.370512   18.549959
O      20.198041   22.370512    7.282041
O       5.633959    7.282041   22.370512
O      20.198041   18.549959   22.370512
O      18.549959   20.198041   22.370512
O       7.282041    5.633959   22.370512
O      20.198041    7.282041   22.370512
O       5.633959   18.549959   22.370512
O      18.549959   22.370512    5.633959
O       7.282041   22.370512   20.198041
O      22.370512   20.198041    7.282041
O      22.370512    5.633959   18.549959
C      19.374000    6.458000   22.956898
C      19.374000    6.458000   24.442238
C      18.524127    5.608127   25.137119
H      17.955823    5.039823   24.674726
C       6.458000   19.374000   22.956898
C       6.458000   19.374000   24.442238
C       7.307873   20.223873   25.137119
H       7.876177   20.792177   24.674726
C       6.458000    6.458000   22.956898
C       6.458000    6.458000   24.442238
C       5.608127    7.307873   25.137119
H       5.039823    7.876177   24.674726
C      19.374000   19.374000   22.956898
C      19.374000   19.374000   24.442238
C      20.223873   18.524127   25.137119
H      20.792177   17.955823   24.674726
C      18.524127   20.223873   25.137119
H      17.955823   20.792177   24.674726
C       7.307873    5.608127   25.137119
H       7.876177    5.039823   24.674726
C      20.223873    7.307873   25.137119
H      20.792177    7.876177   24.674726
C       5.608127   18.524127   25.137119
H       5.039823   17.955823   24.674726
C       6.458000   22.956898   19.374000
C       6.458000   24.442238   19.374000
C       5.608127   25.137119   18.524127
H       5.039823   24.674726   17.955823
C      19.374000   22.956898    6.458000
C      19.374000   24.442238    6.458000
C      20.223873   25.137119    7.307873
H      20.792177   24.674726    7.876177
C      18.524127   25.137119    5.608127
H      17.955823   24.674726    5.039823
C       7.307873   25.137119   20.223873
H       7.876177   24.674726   20.792177
C      22.956898   19.374000    6.458000
C      24.442238   19.374000    6.458000
C      25.137119   18.524127    5.608127
H      24.674726   17.955823    5.039823
C      22.956898    6.458000   19.374000
C      24.442238    6.458000   19.374000
C      25.137119    7.307873   20.223873
H      24.674726    7.876177   20.792177
C      25.137119   20.223873    7.307873
H      24.674726   20.792177    7.876177
C      25.137119    5.608127   18.524127
H      24.674726    5.039823   17.955823
O      18.549959   22.370512   20.198041
O       7.282041   22.370512    5.633959
O      20.198041   22.370512   18.549959
O       5.633959   22.370512    7.282041
C      19.374000   22.956898   19.374000
C      19.374000   24.442238   19.374000
C      18.524127   25.137119   20.223873
H      17.955823   24.674726   20.792177
C       6.458000   22.956898    6.458000
C       6.458000   24.442238    6.458000
C       7.307873   25.137119    5.608127
H       7.876177   24.674726    5.039823
C      20.223873   25.137119   18.524127
H      20.792177   24.674726   17.955823
C       5.608127   25.137119    7.307873
H       5.039823   24.674726    7.876177
