624
mol
O -9.4545 7.2820 20.1980
C -10.0409 6.4580 19.3740
C -11.5262 6.4580 19.3740
C -12.2211 7.3079 20.2239
H -11.7587 7.8762 20.7922
O -9.4545 5.6340 18.5500
C -12.2211 5.6081 18.5241
H -11.7587 5.0398 17.9558
O 5.6340 7.2820 16.3775
C 6.4580 6.4580 15.7911
C 6.4580 6.4580 14.3058
C 5.6081 7.3079 13.6109
H 5.0398 7.8762 14.0733
O 7.2820 5.6340 16.3775
C 7.3079 5.6081 13.6109
H 7.8762 5.0398 14.0733
O 3.4615 5.6340 20.1980
C 2.8751 6.4580 19.3740
C 1.3898 6.4580 19.3740
C 0.6949 5.6081 20.2239
H 1.1573 5.0398 20.7922
O -3.4615 7.2820 18.5500
C -2.8751 6.4580 19.3740
C -1.3898 6.4580 19.3740
C -0.6949 7.3079 18.5241
H -1.1573 7.8762 17.9558
O -3.4615 5.6340 20.1980
C -0.6949 5.6081 20.2239
H -1.1573 5.0398 20.7922
O 3.4615 7.2820 18.5500
C 0.6949 7.3079 18.5241
H 1.1573 7.8762 17.9558
O 9.4545 5.6340 18.5500
O 7.2820 5.6340 35.2865
O 5.6340 7.2820 35.2865
O 9.4545 7.2820 20.1980
C 6.4580 6.4580 35.8729
C 6.4580 6.4580 37.3582
C 7.3079 5.6081 38.0531
H 7.8762 5.0398 37.5907
C 5.6081 7.3079 38.0531
H 5.0398 7.8762 37.5907
C 10.0409 6.4580 19.3740
C 11.5262 6.4580 19.3740
C 12.2211 5.6081 18.5241
H 11.7587 5.0398 17.9558
C 12.2211 7.3079 20.2239
H 11.7587 7.8762 20.7922
O -9.4545 18.5500 5.6340
C -10.0409 19.3740 6.4580
C -11.5262 19.3740 6.4580
C -12.2211 18.5241 5.6081
H -11.7587 17.9558 5.0398
O -9.4545 20.1980 7.2820
C -12.2211 20.2239 7.3079
H -11.7587 20.7922 7.8762
O 7.2820 20.1980 -9.4545
C 6.4580 19.3740 -10.0409
C 6.4580 19.3740 -11.5262
C 7.3079 20.2239 -12.2211
H 7.8762 20.7922 -11.7587
O 5.6340 18.5500 -9.4545
C 5.6081 18.5241 -12.2211
H 5.0398 17.9558 -11.7587
O 7.2820 16.3775 5.6340
C 6.4580 15.7911 6.4580
C 6.4580 14.3058 6.4580
C 7.3079 13.6109 5.6081
H 7.8762 14.0733 5.0398
O 5.6340 16.3775 7.2820
C 5.6081 13.6109 7.3079
H 5.0398 14.0733 7.8762
O 5.6340 20.1980 3.4615
C 6.4580 19.3740 2.8751
C 6.4580 19.3740 1.3898
C 5.6081 20.2239 0.6949
H 5.0398 20.7922 1.1573
O 7.2820 22.3705 7.2820
C 6.4580 22.9569 6.4580
C 6.4580 24.4422 6.4580
C 7.3079 25.1371 7.3079
H 7.8762 24.6747 7.8762
O 7.2820 18.5500 -3.4615
C 6.4580 19.3740 -2.8751
C 6.4580 19.3740 -1.3898
C 7.3079 18.5241 -0.6949
H 7.8762 17.9558 -1.1573
O 5.6340 29.2935 5.6340
C 6.4580 28.7071 6.4580
C 6.4580 27.2218 6.4580
C 5.6081 26.5269 5.6081
H 5.0398 26.9893 5.0398
O 5.6340 20.1980 -3.4615
C 5.6081 20.2239 -0.6949
H 5.0398 20.7922 -1.1573
O 7.2820 29.2935 7.2820
C 7.3079 26.5269 7.3079
H 7.8762 26.9893 7.8762
O 7.2820 18.5500 3.4615
C 7.3079 18.5241 0.6949
H 7.8762 17.9558 1.1573
O 5.6340 22.3705 5.6340
C 5.6081 25.1371 5.6081
H 5.0398 24.6747 5.0398
O 3.4615 20.1980 5.6340
C 2.8751 19.3740 6.4580
C 1.3898 19.3740 6.4580
C 0.6949 20.2239 5.6081
H 1.1573 20.7922 5.0398
O -3.4615 18.5500 7.2820
C -2.8751 19.3740 6.4580
C -1.3898 19.3740 6.4580
C -0.6949 18.5241 7.3079
H -1.1573 17.9558 7.8762
O -3.4615 20.1980 5.6340
C -0.6949 20.2239 5.6081
H -1.1573 20.7922 5.0398
O 3.4615 18.5500 7.2820
C 0.6949 18.5241 7.3079
H 1.1573 17.9558 7.8762
O 5.6340 18.5500 9.4545
O 9.4545 20.1980 7.2820
O 7.2820 20.1980 9.4545
O 9.4545 18.5500 5.6340
C 6.4580 19.3740 10.0409
C 6.4580 19.3740 11.5262
C 5.6081 18.5241 12.2211
H 5.0398 17.9558 11.7587
C 7.3079 20.2239 12.2211
H 7.8762 20.7922 11.7587
C 10.0409 19.3740 6.4580
C 11.5262 19.3740 6.4580
C 12.2211 20.2239 7.3079
H 11.7587 20.7922 7.8762
C 12.2211 18.5241 5.6081
H 11.7587 17.9558 5.0398
O 5.6340 35.2865 7.2820
O 7.2820 35.2865 5.6340
C 6.4580 35.8729 6.4580
C 6.4580 37.3582 6.4580
C 5.6081 38.0531 7.3079
H 5.0398 37.5907 7.8762
C 7.3079 38.0531 5.6081
H 7.8762 37.5907 5.0398
O -9.4545 20.1980 18.5500
C -10.0409 19.3740 19.3740
C -11.5262 19.3740 19.3740
C -12.2211 20.2239 18.5241
H -11.7587 20.7922 17.9558
O -9.4545 18.5500 20.1980
C -12.2211 18.5241 20.2239
H -11.7587 17.9558 20.7922
O 5.6340 16.3775 18.5500
C 6.4580 15.7911 19.3740
C 6.4580 14.3058 19.3740
C 5.6081 13.6109 18.5241
H 5.0398 14.0733 17.9558
O 7.2820 16.3775 20.1980
C 7.3079 13.6109 20.2239
H 7.8762 14.0733 20.7922
O 7.2820 20.1980 16.3775
C 6.4580 19.3740 15.7911
C 6.4580 19.3740 14.3058
C 7.3079 20.2239 13.6109
H 7.8762 20.7922 14.0733
O 5.6340 18.5500 16.3775
C 5.6081 18.5241 13.6109
H 5.0398 17.9558 14.0733
O 9.4545 18.5500 20.1980
C 10.0409 19.3740 19.3740
C 11.5262 19.3740 19.3740
C 12.2211 18.5241 20.2239
H 11.7587 17.9558 20.7922
O 9.4545 20.1980 18.5500
C 12.2211 20.2239 18.5241
H 11.7587 20.7922 17.9558
O 5.6340 20.1980 29.2935
C 6.4580 19.3740 28.7071
C 6.4580 19.3740 27.2218
C 5.6081 20.2239 26.5269
H 5.0398 20.7922 26.9893
O 7.2820 29.2935 18.5500
C 6.4580 28.7071 19.3740
C 6.4580 27.2218 19.3740
C 7.3079 26.5269 18.5241
H 7.8762 26.9893 17.9558
O 7.2820 18.5500 22.3705
C 6.4580 19.3740 22.9569
C 6.4580 19.3740 24.4422
C 7.3079 18.5241 25.1371
H 7.8762 17.9558 24.6747
O 5.6340 22.3705 20.1980
C 6.4580 22.9569 19.3740
C 6.4580 24.4422 19.3740
C 5.6081 25.1371 20.2239
H 5.0398 24.6747 20.7922
O 5.6340 20.1980 22.3705
C 5.6081 20.2239 25.1371
H 5.0398 20.7922 24.6747
O 7.2820 22.3705 18.5500
C 7.3079 25.1371 18.5241
H 7.8762 24.6747 17.9558
O 7.2820 18.5500 29.2935
C 7.3079 18.5241 26.5269
H 7.8762 17.9558 26.9893
O 5.6340 29.2935 20.1980
C 5.6081 26.5269 20.2239
H 5.0398 26.9893 20.7922
O -3.4615 20.1980 20.1980
C -2.8751 19.3740 19.3740
C -1.3898 19.3740 19.3740
C -0.6949 20.2239 20.2239
H -1.1573 20.7922 20.7922
O 3.4615 18.5500 18.5500
C 2.8751 19.3740 19.3740
C 1.3898 19.3740 19.3740
C 0.6949 18.5241 18.5241
H 1.1573 17.9558 17.9558
O 3.4615 20.1980 20.1980
C 0.6949 20.2239 20.2239
H 1.1573 20.7922 20.7922
O -3.4615 18.5500 18.5500
C -0.6949 18.5241 18.5241
H -1.1573 17.9558 17.9558
O 5.6340 18.5500 35.2865
O 7.2820 35.2865 20.1980
O 7.2820 20.1980 35.2865
O 5.6340 35.2865 18.5500
C 6.4580 19.3740 35.8729
C 6.4580 19.3740 37.3582
C 5.6081 18.5241 38.0531
H 5.0398 17.9558 37.5907
C 7.3079 20.2239 38.0531
H 7.8762 20.7922 37.5907
C 6.4580 35.8729 19.3740
C 6.4580 37.3582 19.3740
C 7.3079 38.0531 20.2239
H 7.8762 37.5907 20.7922
C 5.6081 38.0531 18.5241
H 5.0398 37.5907 17.9558
O 16.3775 5.6340 7.2820
C 15.7911 6.4580 6.4580
C 14.3058 6.4580 6.4580
C 13.6109 5.6081 7.3079
H 14.0733 5.0398 7.8762
O 16.3775 7.2820 5.6340
C 13.6109 7.3079 5.6081
H 14.0733 7.8762 5.0398
O 20.1980 -9.4545 7.2820
C 19.3740 -10.0409 6.4580
C 19.3740 -11.5262 6.4580
C 20.2239 -12.2211 7.3079
H 20.7922 -11.7587 7.8762
O 18.5500 -9.4545 5.6340
C 18.5241 -12.2211 5.6081
H 17.9558 -11.7587 5.0398
O 18.5500 5.6340 -9.4545
C 19.3740 6.4580 -10.0409
C 19.3740 6.4580 -11.5262
C 18.5241 5.6081 -12.2211
H 17.9558 5.0398 -11.7587
O 20.1980 7.2820 -9.4545
C 20.2239 7.3079 -12.2211
H 20.7922 7.8762 -11.7587
O 35.2865 7.2820 5.6340
C 35.8729 6.4580 6.4580
C 37.3582 6.4580 6.4580
C 38.0531 7.3079 5.6081
H 37.5907 7.8762 5.0398
O 35.2865 5.6340 7.2820
C 38.0531 5.6081 7.3079
H 37.5907 5.0398 7.8762
O 20.1980 5.6340 3.4615
C 19.3740 6.4580 2.8751
C 19.3740 6.4580 1.3898
C 20.2239 5.6081 0.6949
H 20.7922 5.0398 1.1573
O 18.5500 3.4615 7.2820
C 19.3740 2.8751 6.4580
C 19.3740 1.3898 6.4580
C 18.5241 0.6949 7.3079
H 17.9558 1.1573 7.8762
O 18.5500 7.2820 -3.4615
C 19.3740 6.4580 -2.8751
C 19.3740 6.4580 -1.3898
C 18.5241 7.3079 -0.6949
H 17.9558 7.8762 -1.1573
O 20.1980 -3.4615 5.6340
C 19.3740 -2.8751 6.4580
C 19.3740 -1.3898 6.4580
C 20.2239 -0.6949 5.6081
H 20.7922 -1.1573 5.0398
O 20.1980 5.6340 -3.4615
C 20.2239 5.6081 -0.6949
H 20.7922 5.0398 -1.1573
O 18.5500 -3.4615 7.2820
C 18.5241 -0.6949 7.3079
H 17.9558 -1.1573 7.8762
O 18.5500 7.2820 3.4615
C 18.5241 7.3079 0.6949
H 17.9558 7.8762 1.1573
O 20.1980 3.4615 5.6340
C 20.2239 0.6949 5.6081
H 20.7922 1.1573 5.0398
O 22.3705 5.6340 5.6340
C 22.9569 6.4580 6.4580
C 24.4422 6.4580 6.4580
C 25.1371 5.6081 5.6081
H 24.6747 5.0398 5.0398
O 29.2935 7.2820 7.2820
C 28.7071 6.4580 6.4580
C 27.2218 6.4580 6.4580
C 26.5269 7.3079 7.3079
H 26.9893 7.8762 7.8762
O 29.2935 5.6340 5.6340
C 26.5269 5.6081 5.6081
H 26.9893 5.0398 5.0398
O 22.3705 7.2820 7.2820
C 25.1371 7.3079 7.3079
H 24.6747 7.8762 7.8762
O 20.1980 7.2820 9.4545
O 18.5500 9.4545 5.6340
O 18.5500 5.6340 9.4545
O 20.1980 9.4545 7.2820
C 19.3740 6.4580 10.0409
C 19.3740 6.4580 11.5262
C 20.2239 7.3079 12.2211
H 20.7922 7.8762 11.7587
C 18.5241 5.6081 12.2211
H 17.9558 5.0398 11.7587
C 19.3740 10.0409 6.4580
C 19.3740 11.5262 6.4580
C 18.5241 12.2211 5.6081
H 17.9558 11.7587 5.0398
C 20.2239 12.2211 7.3079
H 20.7922 11.7587 7.8762
O 16.3775 7.2820 20.1980
C 15.7911 6.4580 19.3740
C 14.3058 6.4580 19.3740
C 13.6109 7.3079 20.2239
H 14.0733 7.8762 20.7922
O 16.3775 5.6340 18.5500
C 13.6109 5.6081 18.5241
H 14.0733 5.0398 17.9558
O 18.5500 5.6340 16.3775
C 19.3740 6.4580 15.7911
C 19.3740 6.4580 14.3058
C 18.5241 5.6081 13.6109
H 17.9558 5.0398 14.0733
O 20.1980 7.2820 16.3775
C 20.2239 7.3079 13.6109
H 20.7922 7.8762 14.0733
O 18.5500 -9.4545 20.1980
C 19.3740 -10.0409 19.3740
C 19.3740 -11.5262 19.3740
C 18.5241 -12.2211 20.2239
H 17.9558 -11.7587 20.7922
O 20.1980 -9.4545 18.5500
C 20.2239 -12.2211 18.5241
H 20.7922 -11.7587 17.9558
O 20.1980 5.6340 29.2935
C 19.3740 6.4580 28.7071
C 19.3740 6.4580 27.2218
C 20.2239 5.6081 26.5269
H 20.7922 5.0398 26.9893
O 18.5500 -3.4615 18.5500
C 19.3740 -2.8751 19.3740
C 19.3740 -1.3898 19.3740
C 18.5241 -0.6949 18.5241
H 17.9558 -1.1573 17.9558
O 18.5500 7.2820 22.3705
C 19.3740 6.4580 22.9569
C 19.3740 6.4580 24.4422
C 18.5241 7.3079 25.1371
H 17.9558 7.8762 24.6747
O 20.1980 3.4615 20.1980
C 19.3740 2.8751 19.3740
C 19.3740 1.3898 19.3740
C 20.2239 0.6949 20.2239
H 20.7922 1.1573 20.7922
O 20.1980 5.6340 22.3705
C 20.2239 5.6081 25.1371
H 20.7922 5.0398 24.6747
O 18.5500 3.4615 18.5500
C 18.5241 0.6949 18.5241
H 17.9558 1.1573 17.9558
O 18.5500 7.2820 29.2935
C 18.5241 7.3079 26.5269
H 17.9558 7.8762 26.9893
O 20.1980 -3.4615 20.1980
C 20.2239 -0.6949 20.2239
H 20.7922 -1.1573 20.7922
O 29.2935 5.6340 20.1980
C 28.7071 6.4580 19.3740
C 27.2218 6.4580 19.3740
C 26.5269 5.6081 20.2239
H 26.9893 5.0398 20.7922
O 22.3705 7.2820 18.5500
C 22.9569 6.4580 19.3740
C 24.4422 6.4580 19.3740
C 25.1371 7.3079 18.5241
H 24.6747 7.8762 17.9558
O 22.3705 5.6340 20.1980
C 25.1371 5.6081 20.2239
H 24.6747 5.0398 20.7922
O 29.2935 7.2820 18.5500
C 26.5269 7.3079 18.5241
H 26.9893 7.8762 17.9558
O 20.1980 7.2820 35.2865
O 35.2865 5.6340 18.5500
O 18.5500 5.6340 35.2865
O 35.2865 7.2820 20.1980
C 19.3740 6.4580 35.8729
C 19.3740 6.4580 37.3582
C 20.2239 7.3079 38.0531
H 20.7922 7.8762 37.5907
C 18.5241 5.6081 38.0531
H 17.9558 5.0398 37.5907
C 35.8729 6.4580 19.3740
C 37.3582 6.4580 19.3740
C 38.0531 5.6081 18.5241
H 37.5907 5.0398 17.9558
C 38.0531 7.3079 20.2239
H 37.5907 7.8762 20.7922
O 20.1980 9.4545 18.5500
O 18.5500 9.4545 20.1980
C 19.3740 10.0409 19.3740
C 19.3740 11.5262 19.3740
C 20.2239 12.2211 18.5241
H 20.7922 11.7587 17.9558
C 18.5241 12.2211 20.2239
H 17.9558 11.7587 20.7922
O 16.3775 18.5500 5.6340
C 15.7911 19.3740 6.4580
C 14.3058 19.3740 6.4580
C 13.6109 18.5241 5.6081
H 14.0733 17.9558 5.0398
O 16.3775 20.1980 7.2820
C 13.6109 20.2239 7.3079
H 14.0733 20.7922 7.8762
O 20.1980 16.3775 7.2820
C 19.3740 15.7911 6.4580
C 19.3740 14.3058 6.4580
C 20.2239 13.6109 7.3079
H 20.7922 14.0733 7.8762
O 18.5500 16.3775 5.6340
C 18.5241 13.6109 5.6081
H 17.9558 14.0733 5.0398
O 20.1980 18.5500 -9.4545
C 19.3740 19.3740 -10.0409
C 19.3740 19.3740 -11.5262
C 20.2239 18.5241 -12.2211
H 20.7922 17.9558 -11.7587
O 18.5500 20.1980 -9.4545
C 18.5241 20.2239 -12.2211
H 17.9558 20.7922 -11.7587
O 20.1980 20.1980 -3.4615
C 19.3740 19.3740 -2.8751
C 19.3740 19.3740 -1.3898
C 20.2239 20.2239 -0.6949
H 20.7922 20.7922 -1.1573
O 18.5500 29.2935 7.2820
C 19.3740 28.7071 6.4580
C 19.3740 27.2218 6.4580
C 18.5241 26.5269 7.3079
H 17.9558 26.9893 7.8762
O 18.5500 18.5500 3.4615
C 19.3740 19.3740 2.8751
C 19.3740 19.3740 1.3898
C 18.5241 18.5241 0.6949
H 17.9558 17.9558 1.1573
O 20.1980 22.3705 5.6340
C 19.3740 22.9569 6.4580
C 19.3740 24.4422 6.4580
C 20.2239 25.1371 5.6081
H 20.7922 24.6747 5.0398
O 20.1980 20.1980 3.4615
C 20.2239 20.2239 0.6949
H 20.7922 20.7922 1.1573
O 18.5500 22.3705 7.2820
C 18.5241 25.1371 7.3079
H 17.9558 24.6747 7.8762
O 18.5500 18.5500 -3.4615
C 18.5241 18.5241 -0.6949
H 17.9558 17.9558 -1.1573
O 20.1980 29.2935 5.6340
C 20.2239 26.5269 5.6081
H 20.7922 26.9893 5.0398
O 29.2935 20.1980 5.6340
C 28.7071 19.3740 6.4580
C 27.2218 19.3740 6.4580
C 26.5269 20.2239 5.6081
H 26.9893 20.7922 5.0398
O 22.3705 18.5500 7.2820
C 22.9569 19.3740 6.4580
C 24.4422 19.3740 6.4580
C 25.1371 18.5241 7.3079
H 24.6747 17.9558 7.8762
O 22.3705 20.1980 5.6340
C 25.1371 20.2239 5.6081
H 24.6747 20.7922 5.0398
O 29.2935 18.5500 7.2820
C 26.5269 18.5241 7.3079
H 26.9893 17.9558 7.8762
O 35.2865 20.1980 7.2820
O 18.5500 35.2865 5.6340
O 18.5500 20.1980 9.4545
O 20.1980 18.5500 9.4545
O 20.1980 35.2865 7.2820
O 35.2865 18.5500 5.6340
C 19.3740 19.3740 10.0409
C 19.3740 19.3740 11.5262
C 18.5241 20.2239 12.2211
H 17.9558 20.7922 11.7587
C 20.2239 18.5241 12.2211
H 20.7922 17.9558 11.7587
C 19.3740 35.8729 6.4580
C 19.3740 37.3582 6.4580
C 18.5241 38.0531 5.6081
H 17.9558 37.5907 5.0398
C 20.2239 38.0531 7.3079
H 20.7922 37.5907 7.8762
C 35.8729 19.3740 6.4580
C 37.3582 19.3740 6.4580
C 38.0531 20.2239 7.3079
H 37.5907 20.7922 7.8762
C 38.0531 18.5241 5.6081
H 37.5907 17.9558 5.0398
O 16.3775 20.1980 18.5500
C 15.7911 19.3740 19.3740
C 14.3058 19.3740 19.3740
C 13.6109 20.2239 18.5241
H 14.0733 20.7922 17.9558
O 16.3775 18.5500 20.1980
C 13.6109 18.5241 20.2239
H 14.0733 17.9558 20.7922
O 20.1980 18.5500 16.3775
C 19.3740 19.3740 15.7911
C 19.3740 19.3740 14.3058
C 20.2239 18.5241 13.6109
H 20.7922 17.9558 14.0733
O 18.5500 20.1980 16.3775
C 18.5241 20.2239 13.6109
H 17.9558 20.7922 14.0733
O 18.5500 16.3775 20.1980
C 19.3740 15.7911 19.3740
C 19.3740 14.3058 19.3740
C 18.5241 13.6109 20.2239
H 17.9558 14.0733 20.7922
O 20.1980 16.3775 18.5500
C 20.2239 13.6109 18.5241
H 20.7922 14.0733 17.9558
O 35.2865 18.5500 20.1980
C 35.8729 19.3740 19.3740
C 37.3582 19.3740 19.3740
C 38.0531 18.5241 20.2239
H 37.5907 17.9558 20.7922
O 35.2865 20.1980 18.5500
C 38.0531 20.2239 18.5241
H 37.5907 20.7922 17.9558
O 20.1980 20.1980 22.3705
C 19.3740 19.3740 22.9569
C 19.3740 19.3740 24.4422
C 20.2239 20.2239 25.1371
H 20.7922 20.7922 24.6747
O 18.5500 22.3705 18.5500
C 19.3740 22.9569 19.3740
C 19.3740 24.4422 19.3740
C 18.5241 25.1371 18.5241
H 17.9558 24.6747 17.9558
O 18.5500 18.5500 29.2935
C 19.3740 19.3740 28.7071
C 19.3740 19.3740 27.2218
C 18.5241 18.5241 26.5269
H 17.9558 17.9558 26.9893
O 20.1980 29.2935 20.1980
C 19.3740 28.7071 19.3740
C 19.3740 27.2218 19.3740
C 20.2239 26.5269 20.2239
H 20.7922 26.9893 20.7922
O 20.1980 20.1980 29.2935
C 20.2239 20.2239 26.5269
H 20.7922 20.7922 26.9893
O 18.5500 29.2935 18.5500
C 18.5241 26.5269 18.5241
H 17.9558 26.9893 17.9558
O 18.5500 18.5500 22.3705
C 18.5241 18.5241 25.1371
H 17.9558 17.9558 24.6747
O 20.1980 22.3705 20.1980
C 20.2239 25.1371 20.2239
H 20.7922 24.6747 20.7922
O 22.3705 20.1980 20.1980
C 22.9569 19.3740 19.3740
C 24.4422 19.3740 19.3740
C 25.1371 20.2239 20.2239
H 24.6747 20.7922 20.7922
O 29.2935 18.5500 18.5500
C 28.7071 19.3740 19.3740
C 27.2218 19.3740 19.3740
C 26.5269 18.5241 18.5241
H 26.9893 17.9558 17.9558
O 29.2935 20.1980 20.1980
C 26.5269 20.2239 20.2239
H 26.9893 20.7922 20.7922
O 22.3705 18.5500 18.5500
C 25.1371 18.5241 18.5241
H 24.6747 17.9558 17.9558
O 18.5500 20.1980 35.2865
O 20.1980 18.5500 35.2865
C 19.3740 19.3740 35.8729
C 19.3740 19.3740 37.3582
C 18.5241 20.2239 38.0531
H 17.9558 20.7922 37.5907
C 20.2239 18.5241 38.0531
H 20.7922 17.9558 37.5907
O 20.1980 35.2865 18.5500
O 18.5500 35.2865 20.1980
C 19.3740 35.8729 19.3740
C 19.3740 37.3582 19.3740
C 20.2239 38.0531 18.5241
H 20.7922 37.5907 17.9558
C 18.5241 38.0531 20.2239
H 17.9558 37.5907 20.7922
